<?xml version='1.0' encoding='UTF-8'?>
<routes>
    <vType id="car" accel="2.6" decel="4.5" sigma="0.5" length="5.0" maxSpeed="16.8" color="yellow" />
    <route id="route_0" edges="we_41_2 we_41_1 we_41_0" />
    <route id="route_1" edges="ew_42_0 ew_42_1 ew_42_2" />
    <route id="route_2" edges="we_42_2 we_42_1 we_42_0" />
    <route id="route_3" edges="we_43_2 we_43_1 we_43_0" />
    <route id="route_4" edges="ew_44_0 ew_44_1 ew_44_2" />
    <route id="route_5" edges="ns_9th_2 ns_9th_1 ns_9th_0" />
    <route id="route_6" edges="sn_8th_0 sn_8th_1 sn_8th_2" />
    <route id="route_7" edges="ns_7th_2 ns_7th_1 ns_7th_0" />
    <route id="route_8" edges="sn_6th_0 sn_6th_1 sn_6th_2" />
    <route id="route_9" edges="we_41_2 we_41_1" />
    <route id="route_10" edges="we_41_1 we_41_0" />
    <route id="route_11" edges="ew_42_0 ew_42_1" />
    <route id="route_12" edges="ew_42_1 ew_42_2" />
    <route id="route_13" edges="ns_9th_2 ns_9th_1" />
    <route id="route_14" edges="ns_9th_1 ns_9th_0" />
    <route id="route_15" edges="sn_8th_0 sn_8th_1" />
    <route id="route_16" edges="sn_8th_1 sn_8th_2" />
    <route id="route_17" edges="ns_9th_2 we_43_0" />
    <route id="route_18" edges="ns_9th_1 we_42_0" />
    <route id="route_19" edges="ns_7th_2 we_43_2" />
    <route id="route_20" edges="ns_7th_1 we_42_2" />
    <route id="route_21" edges="sn_8th_0 ew_42_0" />
    <route id="route_22" edges="sn_8th_1 ew_44_0" />
    <route id="route_23" edges="sn_6th_0 ew_42_2" />
    <route id="route_24" edges="sn_6th_1 ew_44_2" />
    <route id="route_25" edges="we_41_2 ns_7th_0" />
    <route id="route_26" edges="we_42_2 ns_7th_1" />
    <route id="route_27" edges="we_43_2 ns_7th_2" />
    <route id="route_28" edges="ew_42_0 sn_8th_0" />
    <route id="route_29" edges="ew_44_0 sn_8th_2" />
    <route id="route_30" edges="ns_9th_2 ew_42_0" />
    <route id="route_31" edges="ns_9th_1 ew_44_0" />
    <route id="route_32" edges="ns_7th_2 ew_42_2" />
    <route id="route_33" edges="ns_7th_1 ew_44_2" />
    <route id="route_34" edges="sn_8th_0 we_41_0" />
    <route id="route_35" edges="sn_8th_1 we_43_0" />
    <route id="route_36" edges="sn_6th_0 we_41_2" />
    <route id="route_37" edges="sn_6th_1 we_43_2" />
    <route id="route_38" edges="we_41_1 sn_8th_0" />
    <route id="route_39" edges="we_42_1 sn_8th_1" />
    <route id="route_40" edges="we_43_1 sn_8th_2" />
    <route id="route_41" edges="ew_42_1 ns_7th_1" />
    <route id="route_42" edges="ew_44_1 ns_7th_2" />
    <vehicle id="veh_0" type="car" route="route_13" depart="0.00" departLane="best" departSpeed="max" />
    <vehicle id="veh_1" type="car" route="route_23" depart="5.50" departLane="best" departSpeed="max" />
    <vehicle id="veh_2" type="car" route="route_22" depart="9.95" departLane="best" departSpeed="max" />
    <vehicle id="veh_3" type="car" route="route_19" depart="15.00" departLane="best" departSpeed="max" />
    <vehicle id="veh_4" type="car" route="route_2" depart="20.42" departLane="best" departSpeed="max" />
    <vehicle id="veh_5" type="car" route="route_9" depart="25.09" departLane="best" departSpeed="max" />
    <vehicle id="veh_6" type="car" route="route_2" depart="31.91" departLane="best" departSpeed="max" />
    <vehicle id="veh_7" type="car" route="route_11" depart="36.12" departLane="best" departSpeed="max" />
    <vehicle id="veh_8" type="car" route="route_6" depart="43.40" departLane="best" departSpeed="max" />
    <vehicle id="veh_9" type="car" route="route_1" depart="49.29" departLane="best" departSpeed="max" />
    <vehicle id="veh_10" type="car" route="route_1" depart="57.07" departLane="best" departSpeed="max" />
    <vehicle id="veh_11" type="car" route="route_12" depart="62.44" departLane="best" departSpeed="max" />
    <vehicle id="veh_12" type="car" route="route_12" depart="67.89" departLane="best" departSpeed="max" />
    <vehicle id="veh_13" type="car" route="route_0" depart="72.95" departLane="best" departSpeed="max" />
    <vehicle id="veh_14" type="car" route="route_41" depart="77.67" departLane="best" departSpeed="max" />
    <vehicle id="veh_15" type="car" route="route_6" depart="82.35" departLane="best" departSpeed="max" />
    <vehicle id="veh_16" type="car" route="route_27" depart="89.03" departLane="best" departSpeed="max" />
    <vehicle id="veh_17" type="car" route="route_26" depart="96.53" departLane="best" departSpeed="max" />
    <vehicle id="veh_18" type="car" route="route_0" depart="100.89" departLane="best" departSpeed="max" />
    <vehicle id="veh_19" type="car" route="route_6" depart="108.58" departLane="best" departSpeed="max" />
    <vehicle id="veh_20" type="car" route="route_37" depart="113.46" departLane="best" departSpeed="max" />
    <vehicle id="veh_21" type="car" route="route_24" depart="119.49" departLane="best" departSpeed="max" />
    <vehicle id="veh_22" type="car" route="route_15" depart="125.56" departLane="best" departSpeed="max" />
    <vehicle id="veh_23" type="car" route="route_24" depart="131.39" departLane="best" departSpeed="max" />
    <vehicle id="veh_24" type="car" route="route_38" depart="137.03" departLane="best" departSpeed="max" />
    <vehicle id="veh_25" type="car" route="route_6" depart="144.37" departLane="best" departSpeed="max" />
    <vehicle id="veh_26" type="car" route="route_15" depart="151.27" departLane="best" departSpeed="max" />
    <vehicle id="veh_27" type="car" route="route_5" depart="157.58" departLane="best" departSpeed="max" />
    <vehicle id="veh_28" type="car" route="route_39" depart="165.37" departLane="best" departSpeed="max" />
    <vehicle id="veh_29" type="car" route="route_21" depart="172.69" departLane="best" departSpeed="max" />
    <vehicle id="veh_30" type="car" route="route_8" depart="179.75" departLane="best" departSpeed="max" />
    <vehicle id="veh_31" type="car" route="route_24" depart="185.35" departLane="best" departSpeed="max" />
    <vehicle id="veh_32" type="car" route="route_24" depart="190.17" departLane="best" departSpeed="max" />
    <vehicle id="veh_33" type="car" route="route_13" depart="197.48" departLane="best" departSpeed="max" />
    <vehicle id="veh_34" type="car" route="route_7" depart="202.84" departLane="best" departSpeed="max" />
    <vehicle id="veh_35" type="car" route="route_12" depart="210.23" departLane="best" departSpeed="max" />
    <vehicle id="veh_36" type="car" route="route_25" depart="216.83" departLane="best" departSpeed="max" />
    <vehicle id="veh_37" type="car" route="route_8" depart="221.40" departLane="best" departSpeed="max" />
    <vehicle id="veh_38" type="car" route="route_38" depart="227.00" departLane="best" departSpeed="max" />
    <vehicle id="veh_39" type="car" route="route_6" depart="234.44" departLane="best" departSpeed="max" />
    <vehicle id="veh_40" type="car" route="route_37" depart="241.87" departLane="best" departSpeed="max" />
    <vehicle id="veh_41" type="car" route="route_16" depart="249.60" departLane="best" departSpeed="max" />
    <vehicle id="veh_42" type="car" route="route_3" depart="255.69" departLane="best" departSpeed="max" />
    <vehicle id="veh_43" type="car" route="route_8" depart="260.14" departLane="best" departSpeed="max" />
    <vehicle id="veh_44" type="car" route="route_6" depart="265.40" departLane="best" departSpeed="max" />
    <vehicle id="veh_45" type="car" route="route_11" depart="271.31" departLane="best" departSpeed="max" />
    <vehicle id="veh_46" type="car" route="route_21" depart="276.31" departLane="best" departSpeed="max" />
    <vehicle id="veh_47" type="car" route="route_6" depart="283.43" departLane="best" departSpeed="max" />
    <vehicle id="veh_48" type="car" route="route_3" depart="287.78" departLane="best" departSpeed="max" />
    <vehicle id="veh_49" type="car" route="route_1" depart="292.45" departLane="best" departSpeed="max" />
    <vehicle id="veh_50" type="car" route="route_11" depart="297.43" departLane="best" departSpeed="max" />
    <vehicle id="veh_51" type="car" route="route_2" depart="302.52" departLane="best" departSpeed="max" />
    <vehicle id="veh_52" type="car" route="route_2" depart="308.32" departLane="best" departSpeed="max" />
    <vehicle id="veh_53" type="car" route="route_0" depart="313.42" departLane="best" departSpeed="max" />
    <vehicle id="veh_54" type="car" route="route_36" depart="319.28" departLane="best" departSpeed="max" />
    <vehicle id="veh_55" type="car" route="route_13" depart="323.50" departLane="best" departSpeed="max" />
    <vehicle id="veh_56" type="car" route="route_5" depart="330.64" departLane="best" departSpeed="max" />
    <vehicle id="veh_57" type="car" route="route_4" depart="336.38" departLane="best" departSpeed="max" />
    <vehicle id="veh_58" type="car" route="route_7" depart="340.64" departLane="best" departSpeed="max" />
    <vehicle id="veh_59" type="car" route="route_3" depart="346.33" departLane="best" departSpeed="max" />
    <vehicle id="veh_60" type="car" route="route_23" depart="352.34" departLane="best" departSpeed="max" />
    <vehicle id="veh_61" type="car" route="route_1" depart="356.56" departLane="best" departSpeed="max" />
    <vehicle id="veh_62" type="car" route="route_6" depart="361.76" departLane="best" departSpeed="max" />
    <vehicle id="veh_63" type="car" route="route_14" depart="367.68" departLane="best" departSpeed="max" />
    <vehicle id="veh_64" type="car" route="route_14" depart="373.20" departLane="best" departSpeed="max" />
    <vehicle id="veh_65" type="car" route="route_14" depart="378.67" departLane="best" departSpeed="max" />
    <vehicle id="veh_66" type="car" route="route_16" depart="383.23" departLane="best" departSpeed="max" />
    <vehicle id="veh_67" type="car" route="route_3" depart="387.94" departLane="best" departSpeed="max" />
    <vehicle id="veh_68" type="car" route="route_7" depart="392.93" departLane="best" departSpeed="max" />
    <vehicle id="veh_69" type="car" route="route_28" depart="399.09" departLane="best" departSpeed="max" />
    <vehicle id="veh_70" type="car" route="route_15" depart="404.97" departLane="best" departSpeed="max" />
    <vehicle id="veh_71" type="car" route="route_9" depart="409.85" departLane="best" departSpeed="max" />
    <vehicle id="veh_72" type="car" route="route_16" depart="415.30" departLane="best" departSpeed="max" />
    <vehicle id="veh_73" type="car" route="route_11" depart="421.41" departLane="best" departSpeed="max" />
    <vehicle id="veh_74" type="car" route="route_2" depart="428.99" departLane="best" departSpeed="max" />
    <vehicle id="veh_75" type="car" route="route_9" depart="434.68" departLane="best" departSpeed="max" />
    <vehicle id="veh_76" type="car" route="route_16" depart="441.14" departLane="best" departSpeed="max" />
    <vehicle id="veh_77" type="car" route="route_14" depart="446.49" departLane="best" departSpeed="max" />
    <vehicle id="veh_78" type="car" route="route_14" depart="451.86" departLane="best" departSpeed="max" />
    <vehicle id="veh_79" type="car" route="route_33" depart="458.97" departLane="best" departSpeed="max" />
    <vehicle id="veh_80" type="car" route="route_0" depart="465.96" departLane="best" departSpeed="max" />
    <vehicle id="veh_81" type="car" route="route_17" depart="471.46" departLane="best" departSpeed="max" />
    <vehicle id="veh_82" type="car" route="route_12" depart="476.36" departLane="best" departSpeed="max" />
    <vehicle id="veh_83" type="car" route="route_4" depart="482.05" departLane="best" departSpeed="max" />
    <vehicle id="veh_84" type="car" route="route_40" depart="488.47" departLane="best" departSpeed="max" />
    <vehicle id="veh_85" type="car" route="route_25" depart="493.89" departLane="best" departSpeed="max" />
    <vehicle id="veh_86" type="car" route="route_10" depart="498.83" departLane="best" departSpeed="max" />
    <vehicle id="veh_87" type="car" route="route_10" depart="506.09" departLane="best" departSpeed="max" />
    <vehicle id="veh_88" type="car" route="route_26" depart="513.37" departLane="best" departSpeed="max" />
    <vehicle id="veh_89" type="car" route="route_4" depart="517.93" departLane="best" departSpeed="max" />
    <vehicle id="veh_90" type="car" route="route_25" depart="524.16" departLane="best" departSpeed="max" />
    <vehicle id="veh_91" type="car" route="route_9" depart="531.49" departLane="best" departSpeed="max" />
    <vehicle id="veh_92" type="car" route="route_5" depart="536.34" departLane="best" departSpeed="max" />
    <vehicle id="veh_93" type="car" route="route_35" depart="542.12" departLane="best" departSpeed="max" />
    <vehicle id="veh_94" type="car" route="route_22" depart="549.61" departLane="best" departSpeed="max" />
    <vehicle id="veh_95" type="car" route="route_11" depart="556.28" departLane="best" departSpeed="max" />
    <vehicle id="veh_96" type="car" route="route_6" depart="562.71" departLane="best" departSpeed="max" />
    <vehicle id="veh_97" type="car" route="route_11" depart="569.31" departLane="best" departSpeed="max" />
    <vehicle id="veh_98" type="car" route="route_16" depart="575.63" departLane="best" departSpeed="max" />
    <vehicle id="veh_99" type="car" route="route_3" depart="582.64" departLane="best" departSpeed="max" />
    <vehicle id="veh_100" type="car" route="route_6" depart="590.12" departLane="best" departSpeed="max" />
    <vehicle id="veh_101" type="car" route="route_40" depart="596.64" departLane="best" departSpeed="max" />
    <vehicle id="veh_102" type="car" route="route_10" depart="601.89" departLane="best" departSpeed="max" />
    <vehicle id="veh_103" type="car" route="route_0" depart="609.53" departLane="best" departSpeed="max" />
    <vehicle id="veh_104" type="car" route="route_39" depart="616.82" departLane="best" departSpeed="max" />
    <vehicle id="veh_105" type="car" route="route_3" depart="621.50" departLane="best" departSpeed="max" />
    <vehicle id="veh_106" type="car" route="route_5" depart="627.99" departLane="best" departSpeed="max" />
    <vehicle id="veh_107" type="car" route="route_10" depart="635.42" departLane="best" departSpeed="max" />
    <vehicle id="veh_108" type="car" route="route_4" depart="639.94" departLane="best" departSpeed="max" />
    <vehicle id="veh_109" type="car" route="route_36" depart="646.18" departLane="best" departSpeed="max" />
    <vehicle id="veh_110" type="car" route="route_6" depart="651.14" departLane="best" departSpeed="max" />
    <vehicle id="veh_111" type="car" route="route_11" depart="656.00" departLane="best" departSpeed="max" />
    <vehicle id="veh_112" type="car" route="route_26" depart="661.68" departLane="best" departSpeed="max" />
    <vehicle id="veh_113" type="car" route="route_6" depart="667.25" departLane="best" departSpeed="max" />
    <vehicle id="veh_114" type="car" route="route_9" depart="672.34" departLane="best" departSpeed="max" />
    <vehicle id="veh_115" type="car" route="route_2" depart="678.92" departLane="best" departSpeed="max" />
    <vehicle id="veh_116" type="car" route="route_2" depart="683.42" departLane="best" departSpeed="max" />
    <vehicle id="veh_117" type="car" route="route_14" depart="691.11" departLane="best" departSpeed="max" />
    <vehicle id="veh_118" type="car" route="route_4" depart="696.29" departLane="best" departSpeed="max" />
    <vehicle id="veh_119" type="car" route="route_2" depart="701.76" departLane="best" departSpeed="max" />
    <vehicle id="veh_120" type="car" route="route_13" depart="708.05" departLane="best" departSpeed="max" />
    <vehicle id="veh_121" type="car" route="route_14" depart="714.42" departLane="best" departSpeed="max" />
    <vehicle id="veh_122" type="car" route="route_21" depart="719.60" departLane="best" departSpeed="max" />
    <vehicle id="veh_123" type="car" route="route_14" depart="725.20" departLane="best" departSpeed="max" />
    <vehicle id="veh_124" type="car" route="route_13" depart="731.34" departLane="best" departSpeed="max" />
    <vehicle id="veh_125" type="car" route="route_14" depart="735.66" departLane="best" departSpeed="max" />
    <vehicle id="veh_126" type="car" route="route_14" depart="743.38" departLane="best" departSpeed="max" />
    <vehicle id="veh_127" type="car" route="route_17" depart="748.05" departLane="best" departSpeed="max" />
    <vehicle id="veh_128" type="car" route="route_29" depart="752.43" departLane="best" departSpeed="max" />
    <vehicle id="veh_129" type="car" route="route_16" depart="758.93" departLane="best" departSpeed="max" />
    <vehicle id="veh_130" type="car" route="route_5" depart="763.38" departLane="best" departSpeed="max" />
    <vehicle id="veh_131" type="car" route="route_7" depart="769.77" departLane="best" departSpeed="max" />
    <vehicle id="veh_132" type="car" route="route_25" depart="774.68" departLane="best" departSpeed="max" />
    <vehicle id="veh_133" type="car" route="route_22" depart="781.59" departLane="best" departSpeed="max" />
    <vehicle id="veh_134" type="car" route="route_14" depart="788.35" departLane="best" departSpeed="max" />
    <vehicle id="veh_135" type="car" route="route_6" depart="792.58" departLane="best" departSpeed="max" />
    <vehicle id="veh_136" type="car" route="route_39" depart="797.57" departLane="best" departSpeed="max" />
    <vehicle id="veh_137" type="car" route="route_10" depart="803.92" departLane="best" departSpeed="max" />
    <vehicle id="veh_138" type="car" route="route_32" depart="808.67" departLane="best" departSpeed="max" />
    <vehicle id="veh_139" type="car" route="route_35" depart="815.59" departLane="best" departSpeed="max" />
    <vehicle id="veh_140" type="car" route="route_0" depart="823.11" departLane="best" departSpeed="max" />
    <vehicle id="veh_141" type="car" route="route_5" depart="829.09" departLane="best" departSpeed="max" />
    <vehicle id="veh_142" type="car" route="route_5" depart="833.77" departLane="best" departSpeed="max" />
    <vehicle id="veh_143" type="car" route="route_4" depart="840.82" departLane="best" departSpeed="max" />
    <vehicle id="veh_144" type="car" route="route_38" depart="847.13" departLane="best" departSpeed="max" />
    <vehicle id="veh_145" type="car" route="route_1" depart="851.74" departLane="best" departSpeed="max" />
    <vehicle id="veh_146" type="car" route="route_6" depart="859.46" departLane="best" departSpeed="max" />
    <vehicle id="veh_147" type="car" route="route_2" depart="865.23" departLane="best" departSpeed="max" />
    <vehicle id="veh_148" type="car" route="route_0" depart="872.16" departLane="best" departSpeed="max" />
    <vehicle id="veh_149" type="car" route="route_24" depart="878.37" departLane="best" departSpeed="max" />
    <vehicle id="veh_150" type="car" route="route_8" depart="885.78" departLane="best" departSpeed="max" />
    <vehicle id="veh_151" type="car" route="route_0" depart="891.23" departLane="best" departSpeed="max" />
    <vehicle id="veh_152" type="car" route="route_17" depart="898.73" departLane="best" departSpeed="max" />
    <vehicle id="veh_153" type="car" route="route_14" depart="903.85" departLane="best" departSpeed="max" />
    <vehicle id="veh_154" type="car" route="route_5" depart="908.91" departLane="best" departSpeed="max" />
    <vehicle id="veh_155" type="car" route="route_5" depart="914.64" departLane="best" departSpeed="max" />
    <vehicle id="veh_156" type="car" route="route_37" depart="920.88" departLane="best" departSpeed="max" />
    <vehicle id="veh_157" type="car" route="route_16" depart="928.59" departLane="best" departSpeed="max" />
    <vehicle id="veh_158" type="car" route="route_6" depart="934.31" departLane="best" departSpeed="max" />
    <vehicle id="veh_159" type="car" route="route_16" depart="940.46" departLane="best" departSpeed="max" />
    <vehicle id="veh_160" type="car" route="route_25" depart="947.91" departLane="best" departSpeed="max" />
    <vehicle id="veh_161" type="car" route="route_15" depart="954.94" departLane="best" departSpeed="max" />
    <vehicle id="veh_162" type="car" route="route_12" depart="960.41" departLane="best" departSpeed="max" />
    <vehicle id="veh_163" type="car" route="route_15" depart="964.73" departLane="best" departSpeed="max" />
    <vehicle id="veh_164" type="car" route="route_26" depart="971.33" departLane="best" departSpeed="max" />
    <vehicle id="veh_165" type="car" route="route_5" depart="978.46" departLane="best" departSpeed="max" />
    <vehicle id="veh_166" type="car" route="route_22" depart="983.59" departLane="best" departSpeed="max" />
    <vehicle id="veh_167" type="car" route="route_23" depart="989.70" departLane="best" departSpeed="max" />
    <vehicle id="veh_168" type="car" route="route_5" depart="994.33" departLane="best" departSpeed="max" />
    <vehicle id="veh_169" type="car" route="route_5" depart="999.84" departLane="best" departSpeed="max" />
    <vehicle id="veh_170" type="car" route="route_31" depart="1004.62" departLane="best" departSpeed="max" />
    <vehicle id="veh_171" type="car" route="route_5" depart="1012.08" departLane="best" departSpeed="max" />
    <vehicle id="veh_172" type="car" route="route_30" depart="1017.55" departLane="best" departSpeed="max" />
    <vehicle id="veh_173" type="car" route="route_16" depart="1023.27" departLane="best" departSpeed="max" />
    <vehicle id="veh_174" type="car" route="route_11" depart="1030.47" departLane="best" departSpeed="max" />
    <vehicle id="veh_175" type="car" route="route_12" depart="1037.87" departLane="best" departSpeed="max" />
    <vehicle id="veh_176" type="car" route="route_7" depart="1045.07" departLane="best" departSpeed="max" />
    <vehicle id="veh_177" type="car" route="route_10" depart="1052.40" departLane="best" departSpeed="max" />
    <vehicle id="veh_178" type="car" route="route_3" depart="1058.59" departLane="best" departSpeed="max" />
    <vehicle id="veh_179" type="car" route="route_11" depart="1063.17" departLane="best" departSpeed="max" />
    <vehicle id="veh_180" type="car" route="route_42" depart="1070.21" departLane="best" departSpeed="max" />
    <vehicle id="veh_181" type="car" route="route_24" depart="1077.83" departLane="best" departSpeed="max" />
    <vehicle id="veh_182" type="car" route="route_3" depart="1084.55" departLane="best" departSpeed="max" />
    <vehicle id="veh_183" type="car" route="route_14" depart="1091.60" departLane="best" departSpeed="max" />
    <vehicle id="veh_184" type="car" route="route_6" depart="1098.17" departLane="best" departSpeed="max" />
    <vehicle id="veh_185" type="car" route="route_17" depart="1103.44" departLane="best" departSpeed="max" />
    <vehicle id="veh_186" type="car" route="route_31" depart="1110.28" departLane="best" departSpeed="max" />
    <vehicle id="veh_187" type="car" route="route_7" depart="1116.01" departLane="best" departSpeed="max" />
    <vehicle id="veh_188" type="car" route="route_9" depart="1123.35" departLane="best" departSpeed="max" />
    <vehicle id="veh_189" type="car" route="route_15" depart="1129.96" departLane="best" departSpeed="max" />
    <vehicle id="veh_190" type="car" route="route_1" depart="1134.92" departLane="best" departSpeed="max" />
    <vehicle id="veh_191" type="car" route="route_12" depart="1140.46" departLane="best" departSpeed="max" />
    <vehicle id="veh_192" type="car" route="route_9" depart="1146.51" departLane="best" departSpeed="max" />
    <vehicle id="veh_193" type="car" route="route_22" depart="1153.86" departLane="best" departSpeed="max" />
    <vehicle id="veh_194" type="car" route="route_15" depart="1158.31" departLane="best" departSpeed="max" />
    <vehicle id="veh_195" type="car" route="route_24" depart="1164.61" departLane="best" departSpeed="max" />
    <vehicle id="veh_196" type="car" route="route_10" depart="1170.06" departLane="best" departSpeed="max" />
    <vehicle id="veh_197" type="car" route="route_12" depart="1177.09" departLane="best" departSpeed="max" />
    <vehicle id="veh_198" type="car" route="route_9" depart="1183.91" departLane="best" departSpeed="max" />
    <vehicle id="veh_199" type="car" route="route_7" depart="1189.58" departLane="best" departSpeed="max" />
    <vehicle id="veh_200" type="car" route="route_37" depart="1197.25" departLane="best" departSpeed="max" />
    <vehicle id="veh_201" type="car" route="route_13" depart="1202.61" departLane="best" departSpeed="max" />
    <vehicle id="veh_202" type="car" route="route_8" depart="1209.06" departLane="best" departSpeed="max" />
    <vehicle id="veh_203" type="car" route="route_14" depart="1214.75" departLane="best" departSpeed="max" />
    <vehicle id="veh_204" type="car" route="route_3" depart="1221.90" departLane="best" departSpeed="max" />
    <vehicle id="veh_205" type="car" route="route_11" depart="1226.12" departLane="best" departSpeed="max" />
    <vehicle id="veh_206" type="car" route="route_17" depart="1231.62" departLane="best" departSpeed="max" />
    <vehicle id="veh_207" type="car" route="route_2" depart="1236.29" departLane="best" departSpeed="max" />
    <vehicle id="veh_208" type="car" route="route_7" depart="1243.23" departLane="best" departSpeed="max" />
    <vehicle id="veh_209" type="car" route="route_15" depart="1249.31" departLane="best" departSpeed="max" />
    <vehicle id="veh_210" type="car" route="route_22" depart="1257.11" departLane="best" departSpeed="max" />
    <vehicle id="veh_211" type="car" route="route_42" depart="1263.36" departLane="best" departSpeed="max" />
    <vehicle id="veh_212" type="car" route="route_34" depart="1267.84" departLane="best" departSpeed="max" />
    <vehicle id="veh_213" type="car" route="route_6" depart="1274.98" departLane="best" departSpeed="max" />
    <vehicle id="veh_214" type="car" route="route_15" depart="1282.21" departLane="best" departSpeed="max" />
    <vehicle id="veh_215" type="car" route="route_28" depart="1287.79" departLane="best" departSpeed="max" />
    <vehicle id="veh_216" type="car" route="route_15" depart="1294.86" departLane="best" departSpeed="max" />
    <vehicle id="veh_217" type="car" route="route_13" depart="1301.51" departLane="best" departSpeed="max" />
    <vehicle id="veh_218" type="car" route="route_12" depart="1309.25" departLane="best" departSpeed="max" />
    <vehicle id="veh_219" type="car" route="route_19" depart="1314.72" departLane="best" departSpeed="max" />
    <vehicle id="veh_220" type="car" route="route_5" depart="1321.37" departLane="best" departSpeed="max" />
    <vehicle id="veh_221" type="car" route="route_29" depart="1326.46" departLane="best" departSpeed="max" />
    <vehicle id="veh_222" type="car" route="route_33" depart="1331.80" departLane="best" departSpeed="max" />
    <vehicle id="veh_223" type="car" route="route_1" depart="1336.69" departLane="best" departSpeed="max" />
    <vehicle id="veh_224" type="car" route="route_31" depart="1341.16" departLane="best" departSpeed="max" />
    <vehicle id="veh_225" type="car" route="route_22" depart="1346.51" departLane="best" departSpeed="max" />
    <vehicle id="veh_226" type="car" route="route_16" depart="1352.17" departLane="best" departSpeed="max" />
    <vehicle id="veh_227" type="car" route="route_26" depart="1356.43" departLane="best" departSpeed="max" />
    <vehicle id="veh_228" type="car" route="route_17" depart="1363.73" departLane="best" departSpeed="max" />
    <vehicle id="veh_229" type="car" route="route_16" depart="1371.11" departLane="best" departSpeed="max" />
    <vehicle id="veh_230" type="car" route="route_8" depart="1378.20" departLane="best" departSpeed="max" />
    <vehicle id="veh_231" type="car" route="route_23" depart="1383.34" departLane="best" departSpeed="max" />
    <vehicle id="veh_232" type="car" route="route_33" depart="1390.35" departLane="best" departSpeed="max" />
    <vehicle id="veh_233" type="car" route="route_24" depart="1395.82" departLane="best" departSpeed="max" />
    <vehicle id="veh_234" type="car" route="route_28" depart="1400.21" departLane="best" departSpeed="max" />
    <vehicle id="veh_235" type="car" route="route_5" depart="1407.90" departLane="best" departSpeed="max" />
    <vehicle id="veh_236" type="car" route="route_13" depart="1414.04" departLane="best" departSpeed="max" />
    <vehicle id="veh_237" type="car" route="route_1" depart="1420.85" departLane="best" departSpeed="max" />
    <vehicle id="veh_238" type="car" route="route_13" depart="1428.46" departLane="best" departSpeed="max" />
    <vehicle id="veh_239" type="car" route="route_23" depart="1433.30" departLane="best" departSpeed="max" />
    <vehicle id="veh_240" type="car" route="route_1" depart="1438.35" departLane="best" departSpeed="max" />
    <vehicle id="veh_241" type="car" route="route_23" depart="1442.74" departLane="best" departSpeed="max" />
    <vehicle id="veh_242" type="car" route="route_25" depart="1449.22" departLane="best" departSpeed="max" />
    <vehicle id="veh_243" type="car" route="route_3" depart="1455.54" departLane="best" departSpeed="max" />
    <vehicle id="veh_244" type="car" route="route_10" depart="1460.30" departLane="best" departSpeed="max" />
    <vehicle id="veh_245" type="car" route="route_4" depart="1465.71" departLane="best" departSpeed="max" />
    <vehicle id="veh_246" type="car" route="route_1" depart="1470.86" departLane="best" departSpeed="max" />
    <vehicle id="veh_247" type="car" route="route_13" depart="1478.45" departLane="best" departSpeed="max" />
    <vehicle id="veh_248" type="car" route="route_34" depart="1484.23" departLane="best" departSpeed="max" />
    <vehicle id="veh_249" type="car" route="route_26" depart="1490.07" departLane="best" departSpeed="max" />